ieee.odm.test/src/org/ieee/odm/pwd/SampleTestData.txt
DATA (BUS, [BusNum, BusName, BusNomVolt, AreaNum, ZoneNum, SubNum, Latitude,LatitudeString, Longitude, LongitudeString,
 BusKVVolt, BusAngle, BusMonEle, LSName,BusVoltLim, BusVoltLimHigh:1, BusVoltLimLow:1, BusVoltLimHigh:2, BusVoltLimLow:2, BusSlack])
{
1 "CHSTRSVC_345_3" 345.0 1 1 1 45.394196 "" -68.52219 "" 354.87332 -33.845276 "YES" "345" "YES" 1.05 0.95 1.0493 0.95 "NO"
}



DATA (LOAD, [CustomString, BusNum, LoadID, LoadStatus, LoadSMW, LoadSMVR, CustomString:1, CustomSingle,CustomSingle:1,GenAGCAble])
{
 "ORRINGTN_345_ILCLOAD" 29 1 "Closed" 0.0 0.0 "LDAREA_BANGOR" 0.0 1.0 "Yes"
}



DATA (SHUNT, [CustomString, BusNum, ShuntID, SSRegNum, SSStatus, SSCMode, DesiredVoltage, SSVHigh, SSVLow, SSNMVR, SSBlockNumSteps, SSBlockMVarPerStep])
{
 "CAP1" 47 1 27 "Closed" "Discrete" 1.0215253 1.0365252 1.0065253 0.0 1 67.0
}



DATA (GEN, [CustomString, CustomString:1,CustomString:2,BusNum, GenID, GenStatus, GenMW, GenMVR, GenVoltSet, GenAGCAble, GenAVRAble,
 GenMWMin, GenMWMax, GenMVRMin, GenMVRMax, GenUseCapCurve, GenRegNum, GenParFac, GenRMPCT, CustomSingle, GenOPFFastStart, CustomSingle:1, CustomSingle:2, CustomSingle:3])
{
 "CHSTRSVC_345_SVC" "SVC" "DZONE_NEPEX_SYN" 4 1 "Closed" 0.0 -9.75 1.0286183 No Yes 0.0 0.0 -155.0 441.0 Yes 2 0.0 100.0 0 No 0 0 0.0
<SUBDATA ReactiveCapability>
//MW   MinMVAR   MaxMVAR
0.0 -155.0 441.0
</SUBDATA>
}



DATA (BRANCH, [CustomString, CustomString:1, CustomString:2, BusNum, BusNum:1, LineCircuit, LineXfmr, LineR, LineX,
 LineC, LineAMVA, LineAMVA:1, LineAMVA:2, LineMonEle, LSName, LineStatus])
{
 "Line" "ORRINGTN_345_388" "388" 30 1748 1 No 0.002500 0.006500 0.460800 1429.0 1429.0 1434.0 "YES" "345" "Closed"
}



DATA (BRANCH, [CustomString, CustomString:1, CustomString:2, BusNum, BusNum:1, LineCircuit, LineXfmr, LineR, LineX,
 LineC, LineAMVA, LineAMVA:1, LineAMVA:2, LineMonEle, LSName, LineStatus])
{
 "ZBR" "MYSTIC_345_349XY" "349XY" 393 406 1 No 0.000000 0.000010 0.000000 900.0 1500.0 1500.0 "YES" "345" "Closed"
}



DATA (BRANCH, [CustomString, CustomString:1, CustomString:2, BusNum, BusNum:1, LineCircuit, LineXfmr, LineR, LineX, LineC,
 LineAMVA, LineAMVA:1, LineAMVA:2, LineMonEle, LSName, LineXFType, LineStatus, XFAuto, XFRegBus, XFRegMax, XFRegMin, LineR:1, LineX:1, LineG:1, LineC:1,
 XFStep:1, XFTapMax:1, XFTapMin:1, LineTap:1, XFFixedTap, XFRegTargetType,XFFixedTap:1, XFMVABase, XFNominalKV, XFNominalKV:1, XFTableNum])
{
 "Transformer" "ORRINGTN_345_A" "A" 31 61 1 Yes 0.00 0.01 0.00 366.0 417.0 478.0 "YES" "345" "Fixed" "Closed" "No" 0 0.0 0.0
 0.000350 0.009100 0.000000 0.000000 0.025 1.025 0.975 1.0 1.0 "Max/Min of Reg Range" 1.0 100 345.0 1.0 0
}



DATA (BRANCH, [CustomString, CustomString:1, CustomString:2, BusNum, BusNum:1, LineCircuit, LineXfmr,  LineR, LineX, LineC,
 LineAMVA, LineAMVA:1, LineAMVA:2,  LineMonEle, LSName, LineStatus, NormLineStatus])
{
 "Breaker" "CHSTRSVC_345_KT1H" "KT1H" 3 4 1 No 0.0 0.000010 0.0 9999 9999 9999 "No" "" CLOSED CLOSED
}